MODEL 1
REMARK VINA RESULT:    -7.753      0.000      0.000
REMARK INTER + INTRA:          -8.724
REMARK INTER:                  -8.660
REMARK INTRA:                  -0.064
REMARK UNBOUND:                -0.064
REMARK  Name = 2353
REMARK  4 active torsions:
REMARK  status: ('A' for Active; 'I' for Inactive)
REMARK    1  A    between atoms: O_3  and  C_19
REMARK    2  A    between atoms: O_3  and  C_24
REMARK    3  A    between atoms: O_4  and  C_21
REMARK    4  A    between atoms: O_4  and  C_25
REMARK                            x       y       z     vdW  Elec       q    Type
REMARK                         _______ _______ _______ _____ _____    ______ ____
ROOT
ATOM      1  O   UNL     1      -2.389   3.164  10.734  0.00  0.00    -0.453 OA
ATOM      2  O   UNL     1      -0.297   3.897   9.794  0.00  0.00    -0.453 OA
ATOM      3  N   UNL     1      -1.890   9.435  11.753  0.00  0.00    -0.346 N 
ATOM      4  C   UNL     1      -2.838   8.836  12.727  0.00  0.00    +0.126 C 
ATOM      5  C   UNL     1      -3.668   7.767  12.043  0.00  0.00    +0.057 C 
ATOM      6  C   UNL     1      -1.215   8.659  10.856  0.00  0.00    +0.050 A 
ATOM      7  C   UNL     1      -2.742   6.755  11.429  0.00  0.00    -0.033 A 
ATOM      8  C   UNL     1      -1.524   7.216  10.858  0.00  0.00    +0.005 A 
ATOM      9  C   UNL     1      -1.680  10.769  11.820  0.00  0.00    +0.098 A 
ATOM     10  C   UNL     1      -0.307   9.273   9.976  0.00  0.00    +0.035 A 
ATOM     11  C   UNL     1      -0.785  11.417  10.970  0.00  0.00    +0.044 A 
ATOM     12  C   UNL     1      -0.083  10.653  10.025  0.00  0.00    -0.011 A 
ATOM     13  C   UNL     1      -3.101   5.398  11.406  0.00  0.00    +0.054 A 
ATOM     14  C   UNL     1      -0.655   6.260  10.294  0.00  0.00    +0.059 A 
ATOM     15  C   UNL     1      -2.218   4.510  10.836  0.00  0.00    +0.167 A 
ATOM     16  C   UNL     1      -1.026   4.929  10.300  0.00  0.00    +0.167 A 
ATOM     17  C   UNL     1      -0.571  12.804  11.038  0.00  0.00    +0.171 A 
ATOM     18  C   UNL     1       0.821  11.291   9.159  0.00  0.00    +0.012 A 
ATOM     19  C   UNL     1       0.329  13.425  10.172  0.00  0.00    +0.162 A 
ATOM     20  C   UNL     1      -1.167   2.782  10.072  0.00  0.00    +0.466 C 
ATOM     21  C   UNL     1       1.025  12.670   9.233  0.00  0.00    +0.050 A 
ENDROOT
BRANCH  17  22
ATOM     22  O   UNL     1      -1.241  13.571  11.949  0.00  0.00    -0.491 OA
ATOM     23  C   UNL     1      -0.584  13.821  13.188  0.00  0.00    +0.277 C 
ENDBRANCH  17  22
BRANCH  19  24
ATOM     24  O   UNL     1       0.538  14.770  10.235  0.00  0.00    -0.491 OA
ATOM     25  C   UNL     1       1.845  15.207  10.602  0.00  0.00    +0.277 C 
ENDBRANCH  19  24
TORSDOF 2
ENDMDL
MODEL 2
REMARK VINA RESULT:    -7.251      1.385      8.167
REMARK INTER + INTRA:          -8.163
REMARK INTER:                  -8.130
REMARK INTRA:                  -0.033
REMARK UNBOUND:                -0.064
REMARK  Name = 2353
REMARK  4 active torsions:
REMARK  status: ('A' for Active; 'I' for Inactive)
REMARK    1  A    between atoms: O_3  and  C_19
REMARK    2  A    between atoms: O_3  and  C_24
REMARK    3  A    between atoms: O_4  and  C_21
REMARK    4  A    between atoms: O_4  and  C_25
REMARK                            x       y       z     vdW  Elec       q    Type
REMARK                         _______ _______ _______ _____ _____    ______ ____
ROOT
ATOM      1  O   UNL     1       0.466  14.372  11.085  0.00  0.00    -0.453 OA
ATOM      2  O   UNL     1      -1.185  13.876  12.767  0.00  0.00    -0.453 OA
ATOM      3  N   UNL     1      -0.951   8.174  10.651  0.00  0.00    -0.346 N 
ATOM      4  C   UNL     1       0.384   8.432  10.053  0.00  0.00    +0.126 C 
ATOM      5  C   UNL     1       0.362   9.751   9.303  0.00  0.00    +0.057 C 
ATOM      6  C   UNL     1      -1.661   9.172  11.251  0.00  0.00    +0.050 A 
ATOM      7  C   UNL     1      -0.077  10.835  10.246  0.00  0.00    -0.033 A 
ATOM      8  C   UNL     1      -1.072  10.525  11.215  0.00  0.00    +0.005 A 
ATOM      9  C   UNL     1      -1.414   6.903  10.627  0.00  0.00    +0.098 A 
ATOM     10  C   UNL     1      -2.906   8.867  11.829  0.00  0.00    +0.035 A 
ATOM     11  C   UNL     1      -2.640   6.556  11.193  0.00  0.00    +0.044 A 
ATOM     12  C   UNL     1      -3.405   7.559  11.807  0.00  0.00    -0.011 A 
ATOM     13  C   UNL     1       0.473  12.123  10.140  0.00  0.00    +0.054 A 
ATOM     14  C   UNL     1      -1.471  11.543  12.103  0.00  0.00    +0.059 A 
ATOM     15  C   UNL     1       0.041  13.080  11.029  0.00  0.00    +0.167 A 
ATOM     16  C   UNL     1      -0.901  12.797  11.987  0.00  0.00    +0.167 A 
ATOM     17  C   UNL     1      -3.122   5.237  11.163  0.00  0.00    +0.171 A 
ATOM     18  C   UNL     1      -4.645   7.227  12.378  0.00  0.00    +0.012 A 
ATOM     19  C   UNL     1      -4.354   4.920  11.735  0.00  0.00    +0.162 A 
ATOM     20  C   UNL     1      -0.315  14.870  12.190  0.00  0.00    +0.466 C 
ATOM     21  C   UNL     1      -5.116   5.914  12.342  0.00  0.00    +0.050 A 
ENDROOT
BRANCH  17  22
ATOM     22  O   UNL     1      -2.397   4.240  10.572  0.00  0.00    -0.491 OA
ATOM     23  C   UNL     1      -2.676   3.965   9.203  0.00  0.00    +0.277 C 
ENDBRANCH  17  22
BRANCH  19  24
ATOM     24  O   UNL     1      -4.825   3.642  11.706  0.00  0.00    -0.491 OA
ATOM     25  C   UNL     1      -4.979   2.979  12.961  0.00  0.00    +0.277 C 
ENDBRANCH  19  24
TORSDOF 2
ENDMDL
MODEL 3
REMARK VINA RESULT:    -7.170      1.944      3.354
REMARK INTER + INTRA:          -8.072
REMARK INTER:                  -8.021
REMARK INTRA:                  -0.051
REMARK UNBOUND:                -0.064
REMARK  Name = 2353
REMARK  4 active torsions:
REMARK  status: ('A' for Active; 'I' for Inactive)
REMARK    1  A    between atoms: O_3  and  C_19
REMARK    2  A    between atoms: O_3  and  C_24
REMARK    3  A    between atoms: O_4  and  C_21
REMARK    4  A    between atoms: O_4  and  C_25
REMARK                            x       y       z     vdW  Elec       q    Type
REMARK                         _______ _______ _______ _____ _____    ______ ____
ROOT
ATOM      1  O   UNL     1      -4.038   2.852  12.269  0.00  0.00    -0.453 OA
ATOM      2  O   UNL     1      -5.287   4.810  12.906  0.00  0.00    -0.453 OA
ATOM      3  N   UNL     1      -0.311   7.932  11.312  0.00  0.00    -0.346 N 
ATOM      4  C   UNL     1       0.154   6.797  10.475  0.00  0.00    +0.126 C 
ATOM      5  C   UNL     1       0.023   5.500  11.252  0.00  0.00    +0.057 C 
ATOM      6  C   UNL     1      -1.431   7.828  12.085  0.00  0.00    +0.050 A 
ATOM      7  C   UNL     1      -1.403   5.350  11.703  0.00  0.00    -0.033 A 
ATOM      8  C   UNL     1      -2.112   6.518  12.100  0.00  0.00    +0.005 A 
ATOM      9  C   UNL     1       0.384   9.090  11.242  0.00  0.00    +0.098 A 
ATOM     10  C   UNL     1      -1.845   8.943  12.834  0.00  0.00    +0.035 A 
ATOM     11  C   UNL     1       0.005  10.221  11.963  0.00  0.00    +0.044 A 
ATOM     12  C   UNL     1      -1.134  10.147  12.780  0.00  0.00    -0.011 A 
ATOM     13  C   UNL     1      -1.993   4.077  11.752  0.00  0.00    +0.054 A 
ATOM     14  C   UNL     1      -3.452   6.371  12.510  0.00  0.00    +0.059 A 
ATOM     15  C   UNL     1      -3.302   3.992  12.168  0.00  0.00    +0.167 A 
ATOM     16  C   UNL     1      -4.012   5.108  12.532  0.00  0.00    +0.167 A 
ATOM     17  C   UNL     1       0.731  11.422  11.893  0.00  0.00    +0.171 A 
ATOM     18  C   UNL     1      -1.527  11.276  13.517  0.00  0.00    +0.012 A 
ATOM     19  C   UNL     1       0.329  12.536  12.630  0.00  0.00    +0.162 A 
ATOM     20  C   UNL     1      -5.297   3.379  12.736  0.00  0.00    +0.466 C 
ATOM     21  C   UNL     1      -0.798  12.464  13.441  0.00  0.00    +0.050 A 
ENDROOT
BRANCH  17  22
ATOM     22  O   UNL     1       1.843  11.522  11.105  0.00  0.00    -0.491 OA
ATOM     23  C   UNL     1       1.640  11.906   9.749  0.00  0.00    +0.277 C 
ENDBRANCH  17  22
BRANCH  19  24
ATOM     24  O   UNL     1       1.032  13.702  12.564  0.00  0.00    -0.491 OA
ATOM     25  C   UNL     1       0.425  14.786  11.863  0.00  0.00    +0.277 C 
ENDBRANCH  19  24
TORSDOF 2
ENDMDL
MODEL 4
REMARK VINA RESULT:    -7.159     18.998     20.064
REMARK INTER + INTRA:          -8.060
REMARK INTER:                  -8.014
REMARK INTRA:                  -0.046
REMARK UNBOUND:                -0.064
REMARK  Name = 2353
REMARK  4 active torsions:
REMARK  status: ('A' for Active; 'I' for Inactive)
REMARK    1  A    between atoms: O_3  and  C_19
REMARK    2  A    between atoms: O_3  and  C_24
REMARK    3  A    between atoms: O_4  and  C_21
REMARK    4  A    between atoms: O_4  and  C_25
REMARK                            x       y       z     vdW  Elec       q    Type
REMARK                         _______ _______ _______ _____ _____    ______ ____
ROOT
ATOM      1  O   UNL     1      -5.370  -2.078  -4.915  0.00  0.00    -0.453 OA
ATOM      2  O   UNL     1      -6.767  -0.117  -4.898  0.00  0.00    -0.453 OA
ATOM      3  N   UNL     1     -10.028  -3.048  -0.676  0.00  0.00    -0.346 N 
ATOM      4  C   UNL     1      -8.872  -3.929  -0.370  0.00  0.00    +0.126 C 
ATOM      5  C   UNL     1      -8.262  -4.441  -1.661  0.00  0.00    +0.057 C 
ATOM      6  C   UNL     1      -9.975  -2.141  -1.694  0.00  0.00    +0.050 A 
ATOM      7  C   UNL     1      -7.892  -3.264  -2.520  0.00  0.00    -0.033 A 
ATOM      8  C   UNL     1      -8.747  -2.127  -2.513  0.00  0.00    +0.005 A 
ATOM      9  C   UNL     1     -11.116  -3.139   0.122  0.00  0.00    +0.098 A 
ATOM     10  C   UNL     1     -11.086  -1.310  -1.922  0.00  0.00    +0.035 A 
ATOM     11  C   UNL     1     -12.236  -2.331  -0.065  0.00  0.00    +0.044 A 
ATOM     12  C   UNL     1     -12.224  -1.396  -1.111  0.00  0.00    -0.011 A 
ATOM     13  C   UNL     1      -6.741  -3.317  -3.323  0.00  0.00    +0.054 A 
ATOM     14  C   UNL     1      -8.386  -1.024  -3.311  0.00  0.00    +0.059 A 
ATOM     15  C   UNL     1      -6.442  -2.213  -4.089  0.00  0.00    +0.167 A 
ATOM     16  C   UNL     1      -7.240  -1.097  -4.079  0.00  0.00    +0.167 A 
ATOM     17  C   UNL     1     -13.368  -2.431   0.762  0.00  0.00    +0.171 A 
ATOM     18  C   UNL     1     -13.346  -0.577  -1.316  0.00  0.00    +0.012 A 
ATOM     19  C   UNL     1     -14.476  -1.611   0.548  0.00  0.00    +0.162 A 
ATOM     20  C   UNL     1      -5.582  -0.746  -5.424  0.00  0.00    +0.466 C 
ATOM     21  C   UNL     1     -14.466  -0.684  -0.490  0.00  0.00    +0.050 A 
ENDROOT
BRANCH  17  22
ATOM     22  O   UNL     1     -13.407  -3.332   1.788  0.00  0.00    -0.491 OA
ATOM     23  C   UNL     1     -13.096  -2.842   3.089  0.00  0.00    +0.277 C 
ENDBRANCH  17  22
BRANCH  19  24
ATOM     24  O   UNL     1     -15.575  -1.706   1.348  0.00  0.00    -0.491 OA
ATOM     25  C   UNL     1     -15.898  -0.567   2.144  0.00  0.00    +0.277 C 
ENDBRANCH  19  24
TORSDOF 2
ENDMDL
MODEL 5
REMARK VINA RESULT:    -7.049     14.509     18.034
REMARK INTER + INTRA:          -7.938
REMARK INTER:                  -7.935
REMARK INTRA:                  -0.003
REMARK UNBOUND:                -0.064
REMARK  Name = 2353
REMARK  4 active torsions:
REMARK  status: ('A' for Active; 'I' for Inactive)
REMARK    1  A    between atoms: O_3  and  C_19
REMARK    2  A    between atoms: O_3  and  C_24
REMARK    3  A    between atoms: O_4  and  C_21
REMARK    4  A    between atoms: O_4  and  C_25
REMARK                            x       y       z     vdW  Elec       q    Type
REMARK                         _______ _______ _______ _____ _____    ______ ____
ROOT
ATOM      1  O   UNL     1      -8.824  -5.162  -4.180  0.00  0.00    -0.453 OA
ATOM      2  O   UNL     1      -7.517  -5.484  -2.183  0.00  0.00    -0.453 OA
ATOM      3  N   UNL     1     -11.505  -1.730   0.471  0.00  0.00    -0.346 N 
ATOM      4  C   UNL     1     -12.504  -2.011  -0.592  0.00  0.00    +0.126 C 
ATOM      5  C   UNL     1     -11.840  -1.925  -1.953  0.00  0.00    +0.057 C 
ATOM      6  C   UNL     1     -10.242  -2.241   0.407  0.00  0.00    +0.050 A 
ATOM      7  C   UNL     1     -10.672  -2.870  -1.981  0.00  0.00    -0.033 A 
ATOM      8  C   UNL     1      -9.899  -3.024  -0.797  0.00  0.00    +0.005 A 
ATOM      9  C   UNL     1     -11.908  -0.993   1.532  0.00  0.00    +0.098 A 
ATOM     10  C   UNL     1      -9.346  -1.970   1.456  0.00  0.00    +0.035 A 
ATOM     11  C   UNL     1     -11.054  -0.705   2.595  0.00  0.00    +0.044 A 
ATOM     12  C   UNL     1      -9.742  -1.202   2.557  0.00  0.00    -0.011 A 
ATOM     13  C   UNL     1     -10.351  -3.554  -3.165  0.00  0.00    +0.054 A 
ATOM     14  C   UNL     1      -8.813  -3.920  -0.827  0.00  0.00    +0.059 A 
ATOM     15  C   UNL     1      -9.275  -4.411  -3.139  0.00  0.00    +0.167 A 
ATOM     16  C   UNL     1      -8.530  -4.593  -2.001  0.00  0.00    +0.167 A 
ATOM     17  C   UNL     1     -11.472   0.065   3.693  0.00  0.00    +0.171 A 
ATOM     18  C   UNL     1      -8.867  -0.917   3.618  0.00  0.00    +0.012 A 
ATOM     19  C   UNL     1     -10.593   0.339   4.741  0.00  0.00    +0.162 A 
ATOM     20  C   UNL     1      -7.709  -5.841  -3.566  0.00  0.00    +0.466 C 
ATOM     21  C   UNL     1      -9.291  -0.151   4.704  0.00  0.00    +0.050 A 
ENDROOT
BRANCH  17  22
ATOM     22  O   UNL     1     -12.744   0.561   3.756  0.00  0.00    -0.491 OA
ATOM     23  C   UNL     1     -12.982   1.808   3.110  0.00  0.00    +0.277 C 
ENDBRANCH  17  22
BRANCH  19  24
ATOM     24  O   UNL     1     -10.996   1.086   5.807  0.00  0.00    -0.491 OA
ATOM     25  C   UNL     1     -10.048   2.005   6.350  0.00  0.00    +0.277 C 
ENDBRANCH  19  24
TORSDOF 2
ENDMDL
MODEL 6
REMARK VINA RESULT:    -6.873     19.494     20.310
REMARK INTER + INTRA:          -7.741
REMARK INTER:                  -7.758
REMARK INTRA:                   0.017
REMARK UNBOUND:                -0.064
REMARK  Name = 2353
REMARK  4 active torsions:
REMARK  status: ('A' for Active; 'I' for Inactive)
REMARK    1  A    between atoms: O_3  and  C_19
REMARK    2  A    between atoms: O_3  and  C_24
REMARK    3  A    between atoms: O_4  and  C_21
REMARK    4  A    between atoms: O_4  and  C_25
REMARK                            x       y       z     vdW  Elec       q    Type
REMARK                         _______ _______ _______ _____ _____    ______ ____
ROOT
ATOM      1  O   UNL     1     -15.204  -1.819   2.175  0.00  0.00    -0.453 OA
ATOM      2  O   UNL     1     -15.505  -0.654   0.089  0.00  0.00    -0.453 OA
ATOM      3  N   UNL     1     -10.176  -3.116  -1.518  0.00  0.00    -0.346 N 
ATOM      4  C   UNL     1     -10.333  -4.172  -0.485  0.00  0.00    +0.126 C 
ATOM      5  C   UNL     1     -10.761  -3.544   0.827  0.00  0.00    +0.057 C 
ATOM      6  C   UNL     1     -11.075  -2.096  -1.628  0.00  0.00    +0.050 A 
ATOM      7  C   UNL     1     -12.020  -2.757   0.598  0.00  0.00    -0.033 A 
ATOM      8  C   UNL     1     -12.164  -2.057  -0.632  0.00  0.00    +0.005 A 
ATOM      9  C   UNL     1      -9.141  -3.230  -2.381  0.00  0.00    +0.098 A 
ATOM     10  C   UNL     1     -10.897  -1.140  -2.643  0.00  0.00    +0.035 A 
ATOM     11  C   UNL     1      -8.930  -2.308  -3.405  0.00  0.00    +0.044 A 
ATOM     12  C   UNL     1      -9.827  -1.237  -3.539  0.00  0.00    -0.011 A 
ATOM     13  C   UNL     1     -13.007  -2.705   1.596  0.00  0.00    +0.054 A 
ATOM     14  C   UNL     1     -13.352  -1.330  -0.845  0.00  0.00    +0.059 A 
ATOM     15  C   UNL     1     -14.144  -1.974   1.337  0.00  0.00    +0.167 A 
ATOM     16  C   UNL     1     -14.313  -1.310   0.149  0.00  0.00    +0.167 A 
ATOM     17  C   UNL     1      -7.851  -2.425  -4.297  0.00  0.00    +0.171 A 
ATOM     18  C   UNL     1      -9.627  -0.297  -4.563  0.00  0.00    +0.012 A 
ATOM     19  C   UNL     1      -7.664  -1.485  -5.310  0.00  0.00    +0.162 A 
ATOM     20  C   UNL     1     -16.064  -0.981   1.377  0.00  0.00    +0.466 C 
ATOM     21  C   UNL     1      -8.551  -0.421  -5.444  0.00  0.00    +0.050 A 
ENDROOT
BRANCH  17  22
ATOM     22  O   UNL     1      -6.964  -3.459  -4.189  0.00  0.00    -0.491 OA
ATOM     23  C   UNL     1      -5.895  -3.297  -3.261  0.00  0.00    +0.277 C 
ENDBRANCH  17  22
BRANCH  19  24
ATOM     24  O   UNL     1      -6.618  -1.596  -6.176  0.00  0.00    -0.491 OA
ATOM     25  C   UNL     1      -6.761  -0.968  -7.449  0.00  0.00    +0.277 C 
ENDBRANCH  19  24
TORSDOF 2
ENDMDL
MODEL 7
REMARK VINA RESULT:    -6.864     18.691     19.959
REMARK INTER + INTRA:          -7.731
REMARK INTER:                  -7.715
REMARK INTRA:                  -0.016
REMARK UNBOUND:                -0.064
REMARK  Name = 2353
REMARK  4 active torsions:
REMARK  status: ('A' for Active; 'I' for Inactive)
REMARK    1  A    between atoms: O_3  and  C_19
REMARK    2  A    between atoms: O_3  and  C_24
REMARK    3  A    between atoms: O_4  and  C_21
REMARK    4  A    between atoms: O_4  and  C_25
REMARK                            x       y       z     vdW  Elec       q    Type
REMARK                         _______ _______ _______ _____ _____    ______ ____
ROOT
ATOM      1  O   UNL     1      -5.721   0.778  -6.719  0.00  0.00    -0.453 OA
ATOM      2  O   UNL     1      -7.573   2.004  -5.789  0.00  0.00    -0.453 OA
ATOM      3  N   UNL     1      -7.899  -2.497  -1.705  0.00  0.00    -0.346 N 
ATOM      4  C   UNL     1      -6.491  -2.878  -1.987  0.00  0.00    +0.126 C 
ATOM      5  C   UNL     1      -6.268  -2.936  -3.487  0.00  0.00    +0.057 C 
ATOM      6  C   UNL     1      -8.524  -1.520  -2.424  0.00  0.00    +0.050 A 
ATOM      7  C   UNL     1      -6.646  -1.609  -4.082  0.00  0.00    -0.033 A 
ATOM      8  C   UNL     1      -7.760  -0.916  -3.533  0.00  0.00    +0.005 A 
ATOM      9  C   UNL     1      -8.522  -3.114  -0.675  0.00  0.00    +0.098 A 
ATOM     10  C   UNL     1      -9.847  -1.177  -2.095  0.00  0.00    +0.035 A 
ATOM     11  C   UNL     1      -9.831  -2.801  -0.312  0.00  0.00    +0.044 A 
ATOM     12  C   UNL     1     -10.511  -1.811  -1.038  0.00  0.00    -0.011 A 
ATOM     13  C   UNL     1      -5.923  -1.097  -5.171  0.00  0.00    +0.054 A 
ATOM     14  C   UNL     1      -8.102   0.333  -4.089  0.00  0.00    +0.059 A 
ATOM     15  C   UNL     1      -6.306   0.123  -5.679  0.00  0.00    +0.167 A 
ATOM     16  C   UNL     1      -7.363   0.820  -5.150  0.00  0.00    +0.167 A 
ATOM     17  C   UNL     1     -10.478  -3.446   0.754  0.00  0.00    +0.171 A 
ATOM     18  C   UNL     1     -11.832  -1.486  -0.688  0.00  0.00    +0.012 A 
ATOM     19  C   UNL     1     -11.790  -3.113   1.092  0.00  0.00    +0.162 A 
ATOM     20  C   UNL     1      -6.529   1.970  -6.782  0.00  0.00    +0.466 C 
ATOM     21  C   UNL     1     -12.467  -2.133   0.372  0.00  0.00    +0.050 A 
ENDROOT
BRANCH  17  22
ATOM     22  O   UNL     1      -9.839  -4.413   1.478  0.00  0.00    -0.491 OA
ATOM     23  C   UNL     1     -10.010  -5.760   1.047  0.00  0.00    +0.277 C 
ENDBRANCH  17  22
BRANCH  19  24
ATOM     24  O   UNL     1     -12.421  -3.738   2.125  0.00  0.00    -0.491 OA
ATOM     25  C   UNL     1     -13.420  -2.994   2.822  0.00  0.00    +0.277 C 
ENDBRANCH  19  24
TORSDOF 2
ENDMDL
MODEL 8
REMARK VINA RESULT:    -6.577      2.643      4.109
REMARK INTER + INTRA:          -7.410
REMARK INTER:                  -7.375
REMARK INTRA:                  -0.035
REMARK UNBOUND:                -0.064
REMARK  Name = 2353
REMARK  4 active torsions:
REMARK  status: ('A' for Active; 'I' for Inactive)
REMARK    1  A    between atoms: O_3  and  C_19
REMARK    2  A    between atoms: O_3  and  C_24
REMARK    3  A    between atoms: O_4  and  C_21
REMARK    4  A    between atoms: O_4  and  C_25
REMARK                            x       y       z     vdW  Elec       q    Type
REMARK                         _______ _______ _______ _____ _____    ______ ____
ROOT
ATOM      1  O   UNL     1      -6.960   4.629  12.829  0.00  0.00    -0.453 OA
ATOM      2  O   UNL     1      -7.225   6.833  13.760  0.00  0.00    -0.453 OA
ATOM      3  N   UNL     1      -1.977   8.139  10.968  0.00  0.00    -0.346 N 
ATOM      4  C   UNL     1      -2.167   6.994  10.040  0.00  0.00    +0.126 C 
ATOM      5  C   UNL     1      -2.574   5.761  10.825  0.00  0.00    +0.057 C 
ATOM      6  C   UNL     1      -2.844   8.365  11.997  0.00  0.00    +0.050 A 
ATOM      7  C   UNL     1      -3.808   6.081  11.620  0.00  0.00    -0.033 A 
ATOM      8  C   UNL     1      -3.930   7.382  12.182  0.00  0.00    +0.005 A 
ATOM      9  C   UNL     1      -0.946   8.980  10.725  0.00  0.00    +0.098 A 
ATOM     10  C   UNL     1      -2.637   9.480  12.827  0.00  0.00    +0.035 A 
ATOM     11  C   UNL     1      -0.708  10.100  11.519  0.00  0.00    +0.044 A 
ATOM     12  C   UNL     1      -1.570  10.357  12.596  0.00  0.00    -0.011 A 
ATOM     13  C   UNL     1      -4.792   5.098  11.815  0.00  0.00    +0.054 A 
ATOM     14  C   UNL     1      -5.095   7.679  12.917  0.00  0.00    +0.059 A 
ATOM     15  C   UNL     1      -5.905   5.441  12.547  0.00  0.00    +0.167 A 
ATOM     16  C   UNL     1      -6.055   6.697  13.079  0.00  0.00    +0.167 A 
ATOM     17  C   UNL     1       0.367  10.970  11.269  0.00  0.00    +0.171 A 
ATOM     18  C   UNL     1      -1.341  11.479  13.409  0.00  0.00    +0.012 A 
ATOM     19  C   UNL     1       0.582  12.082  12.083  0.00  0.00    +0.162 A 
ATOM     20  C   UNL     1      -7.794   5.519  13.598  0.00  0.00    +0.466 C 
ATOM     21  C   UNL     1      -0.271  12.337  13.153  0.00  0.00    +0.050 A 
ENDROOT
BRANCH  17  22
ATOM     22  O   UNL     1       1.221  10.744  10.227  0.00  0.00    -0.491 OA
ATOM     23  C   UNL     1       0.925  11.398   8.997  0.00  0.00    +0.277 C 
ENDBRANCH  17  22
BRANCH  19  24
ATOM     24  O   UNL     1       1.624  12.927  11.843  0.00  0.00    -0.491 OA
ATOM     25  C   UNL     1       2.699  12.913  12.781  0.00  0.00    +0.277 C 
ENDBRANCH  19  24
TORSDOF 2
ENDMDL
MODEL 9
REMARK VINA RESULT:    -6.546      2.492      3.586
REMARK INTER + INTRA:          -7.375
REMARK INTER:                  -7.331
REMARK INTRA:                  -0.044
REMARK UNBOUND:                -0.064
REMARK  Name = 2353
REMARK  4 active torsions:
REMARK  status: ('A' for Active; 'I' for Inactive)
REMARK    1  A    between atoms: O_3  and  C_19
REMARK    2  A    between atoms: O_3  and  C_24
REMARK    3  A    between atoms: O_4  and  C_21
REMARK    4  A    between atoms: O_4  and  C_25
REMARK                            x       y       z     vdW  Elec       q    Type
REMARK                         _______ _______ _______ _____ _____    ______ ____
ROOT
ATOM      1  O   UNL     1      -7.565   3.985  12.933  0.00  0.00    -0.453 OA
ATOM      2  O   UNL     1      -5.711   3.320  11.547  0.00  0.00    -0.453 OA
ATOM      3  N   UNL     1      -3.195   8.618  13.176  0.00  0.00    -0.346 N 
ATOM      4  C   UNL     1      -4.078   8.690  14.367  0.00  0.00    +0.126 C 
ATOM      5  C   UNL     1      -5.506   8.370  13.967  0.00  0.00    +0.057 C 
ATOM      6  C   UNL     1      -3.331   7.620  12.255  0.00  0.00    +0.050 A 
ATOM      7  C   UNL     1      -5.531   7.024  13.301  0.00  0.00    -0.033 A 
ATOM      8  C   UNL     1      -4.436   6.664  12.466  0.00  0.00    +0.005 A 
ATOM      9  C   UNL     1      -2.217   9.545  13.061  0.00  0.00    +0.098 A 
ATOM     10  C   UNL     1      -2.449   7.580  11.162  0.00  0.00    +0.035 A 
ATOM     11  C   UNL     1      -1.318   9.539  11.996  0.00  0.00    +0.044 A 
ATOM     12  C   UNL     1      -1.436   8.535  11.022  0.00  0.00    -0.011 A 
ATOM     13  C   UNL     1      -6.628   6.168  13.488  0.00  0.00    +0.054 A 
ATOM     14  C   UNL     1      -4.460   5.395  11.854  0.00  0.00    +0.059 A 
ATOM     15  C   UNL     1      -6.602   4.944  12.860  0.00  0.00    +0.167 A 
ATOM     16  C   UNL     1      -5.546   4.566  12.070  0.00  0.00    +0.167 A 
ATOM     17  C   UNL     1      -0.306  10.505  11.876  0.00  0.00    +0.171 A 
ATOM     18  C   UNL     1      -0.541   8.518   9.940  0.00  0.00    +0.012 A 
ATOM     19  C   UNL     1       0.578  10.476  10.797  0.00  0.00    +0.162 A 
ATOM     20  C   UNL     1      -6.992   2.958  12.099  0.00  0.00    +0.466 C 
ATOM     21  C   UNL     1       0.461   9.483   9.829  0.00  0.00    +0.050 A 
ENDROOT
BRANCH  17  22
ATOM     22  O   UNL     1      -0.167  11.493  12.811  0.00  0.00    -0.491 OA
ATOM     23  C   UNL     1      -0.938  12.675  12.618  0.00  0.00    +0.277 C 
ENDBRANCH  17  22
BRANCH  19  24
ATOM     24  O   UNL     1       1.560  11.413  10.678  0.00  0.00    -0.491 OA
ATOM     25  C   UNL     1       1.374  12.425   9.690  0.00  0.00    +0.277 C 
ENDBRANCH  19  24
TORSDOF 2
ENDMDL
