MODEL 1
REMARK VINA RESULT:    -7.184      0.000      0.000
REMARK INTER + INTRA:         -12.974
REMARK INTER:                 -10.964
REMARK INTRA:                  -2.010
REMARK UNBOUND:                -2.010
REMARK  Name = 969516
REMARK  12 active torsions:
REMARK  status: ('A' for Active; 'I' for Inactive)
REMARK    1  A    between atoms: O_1  and  C_12
REMARK    2  A    between atoms: O_1  and  C_26
REMARK    3  A    between atoms: O_2  and  C_13
REMARK    4  A    between atoms: O_2  and  C_27
REMARK    5  A    between atoms: O_3  and  C_18
REMARK    6  A    between atoms: O_4  and  C_19
REMARK    7  A    between atoms: C_7  and  C_16
REMARK    8  A    between atoms: C_8  and  C_17
REMARK    9  A    between atoms: C_9  and  C_20
REMARK   10  A    between atoms: C_9  and  C_21
REMARK   11  A    between atoms: C_20  and  C_24
REMARK   12  A    between atoms: C_21  and  C_25
REMARK                            x       y       z     vdW  Elec       q    Type
REMARK                         _______ _______ _______ _____ _____    ______ ____
ROOT
ATOM      1  C   UNL     1      -0.449  11.649  10.071  0.00  0.00    +0.158 C 
ENDROOT
BRANCH   1   3
ATOM      2  O   UNL     1       0.386  11.935  12.288  0.00  0.00    -0.292 OA
ATOM      3  C   UNL     1      -0.554  11.593  11.569  0.00  0.00    +0.164 C 
BRANCH   3   5
ATOM      4  C   UNL     1      -1.718  10.043  13.050  0.00  0.00    +0.011 C 
ATOM      5  C   UNL     1      -1.793  11.053  12.167  0.00  0.00    +0.047 C 
BRANCH   4   6
ATOM      6  C   UNL     1      -2.779   9.025  13.097  0.00  0.00    -0.021 A 
ATOM      7  C   UNL     1      -4.046   9.032  12.501  0.00  0.00    +0.057 A 
ATOM      8  C   UNL     1      -4.987   8.061  12.915  0.00  0.00    +0.162 A 
ATOM      9  C   UNL     1      -2.497   8.000  14.008  0.00  0.00    +0.012 A 
ATOM     10  C   UNL     1      -4.533   7.025  13.738  0.00  0.00    +0.158 A 
ATOM     11  C   UNL     1      -3.186   6.812  13.897  0.00  0.00    +0.050 A 
BRANCH   8  12
ATOM     12  O   UNL     1      -6.303   8.255  12.577  0.00  0.00    -0.491 OA
ATOM     13  C   UNL     1      -7.054   7.061  12.309  0.00  0.00    +0.277 C 
ENDBRANCH   8  12
BRANCH  10  14
ATOM     14  O   UNL     1      -5.316   6.492  14.726  0.00  0.00    -0.503 OA
ATOM     15  H   UNL     1      -6.110   7.060  14.730  0.00  0.00    +0.292 HD
ENDBRANCH  10  14
ENDBRANCH   4   6
ENDBRANCH   3   5
ENDBRANCH   1   3
BRANCH   1  17
ATOM     16  O   UNL     1       1.527  11.059   8.902  0.00  0.00    -0.292 OA
ATOM     17  C   UNL     1       0.451  10.665   9.362  0.00  0.00    +0.164 C 
BRANCH  17  19
ATOM     18  C   UNL     1       0.335   8.505  10.507  0.00  0.00    +0.011 C 
ATOM     19  C   UNL     1       0.156   9.199   9.362  0.00  0.00    +0.047 C 
BRANCH  18  20
ATOM     20  C   UNL     1      -0.498   7.332  10.840  0.00  0.00    -0.021 A 
ATOM     21  C   UNL     1      -1.505   6.746  10.040  0.00  0.00    +0.057 A 
ATOM     22  C   UNL     1      -1.877   5.412  10.288  0.00  0.00    +0.162 A 
ATOM     23  C   UNL     1       0.040   6.529  11.842  0.00  0.00    +0.012 A 
ATOM     24  C   UNL     1      -1.015   4.662  11.091  0.00  0.00    +0.158 A 
ATOM     25  C   UNL     1       0.187   5.206  11.485  0.00  0.00    +0.050 A 
BRANCH  22  26
ATOM     26  O   UNL     1      -3.038   4.959   9.726  0.00  0.00    -0.491 OA
ATOM     27  C   UNL     1      -2.902   3.967   8.702  0.00  0.00    +0.277 C 
ENDBRANCH  22  26
BRANCH  24  28
ATOM     28  O   UNL     1      -1.413   3.567  11.795  0.00  0.00    -0.503 OA
ATOM     29  H   UNL     1      -0.670   2.944  11.687  0.00  0.00    +0.292 HD
ENDBRANCH  24  28
ENDBRANCH  18  20
ENDBRANCH  17  19
ENDBRANCH   1  17
TORSDOF 10
ENDMDL
MODEL 2
REMARK VINA RESULT:    -6.875     16.078     19.294
REMARK INTER + INTRA:         -12.502
REMARK INTER:                  -9.756
REMARK INTRA:                  -2.747
REMARK UNBOUND:                -2.010
REMARK  Name = 969516
REMARK  12 active torsions:
REMARK  status: ('A' for Active; 'I' for Inactive)
REMARK    1  A    between atoms: O_1  and  C_12
REMARK    2  A    between atoms: O_1  and  C_26
REMARK    3  A    between atoms: O_2  and  C_13
REMARK    4  A    between atoms: O_2  and  C_27
REMARK    5  A    between atoms: O_3  and  C_18
REMARK    6  A    between atoms: O_4  and  C_19
REMARK    7  A    between atoms: C_7  and  C_16
REMARK    8  A    between atoms: C_8  and  C_17
REMARK    9  A    between atoms: C_9  and  C_20
REMARK   10  A    between atoms: C_9  and  C_21
REMARK   11  A    between atoms: C_20  and  C_24
REMARK   12  A    between atoms: C_21  and  C_25
REMARK                            x       y       z     vdW  Elec       q    Type
REMARK                         _______ _______ _______ _____ _____    ______ ____
ROOT
ATOM      1  C   UNL     1      -8.595  -5.580  -3.403  0.00  0.00    +0.158 C 
ENDROOT
BRANCH   1   3
ATOM      2  O   UNL     1      -6.320  -4.872  -3.259  0.00  0.00    -0.292 OA
ATOM      3  C   UNL     1      -7.445  -4.858  -2.757  0.00  0.00    +0.164 C 
BRANCH   3   5
ATOM      4  C   UNL     1      -8.524  -4.722  -0.573  0.00  0.00    +0.011 C 
ATOM      5  C   UNL     1      -7.678  -4.179  -1.465  0.00  0.00    +0.047 C 
BRANCH   4   6
ATOM      6  C   UNL     1      -9.344  -3.857   0.288  0.00  0.00    -0.021 A 
ATOM      7  C   UNL     1     -10.718  -3.912   0.555  0.00  0.00    +0.057 A 
ATOM      8  C   UNL     1     -11.320  -2.807   1.201  0.00  0.00    +0.162 A 
ATOM      9  C   UNL     1      -8.638  -2.742   0.755  0.00  0.00    +0.012 A 
ATOM     10  C   UNL     1     -10.478  -1.819   1.721  0.00  0.00    +0.158 A 
ATOM     11  C   UNL     1      -9.131  -2.058   1.844  0.00  0.00    +0.050 A 
BRANCH   8  12
ATOM     12  O   UNL     1     -12.690  -2.718   1.179  0.00  0.00    -0.491 OA
ATOM     13  C   UNL     1     -13.375  -3.504   2.166  0.00  0.00    +0.277 C 
ENDBRANCH   8  12
BRANCH  10  14
ATOM     14  O   UNL     1     -10.824  -0.495   1.708  0.00  0.00    -0.503 OA
ATOM     15  H   UNL     1     -11.599  -0.448   2.300  0.00  0.00    +0.292 HD
ENDBRANCH  10  14
ENDBRANCH   4   6
ENDBRANCH   3   5
ENDBRANCH   1   3
BRANCH   1  17
ATOM     16  O   UNL     1      -8.997  -5.511  -5.738  0.00  0.00    -0.292 OA
ATOM     17  C   UNL     1      -9.227  -4.991  -4.642  0.00  0.00    +0.164 C 
BRANCH  17  19
ATOM     18  C   UNL     1     -10.801  -3.637  -3.347  0.00  0.00    +0.011 C 
ATOM     19  C   UNL     1     -10.259  -3.913  -4.553  0.00  0.00    +0.047 C 
BRANCH  18  20
ATOM     20  C   UNL     1     -11.254  -2.277  -2.994  0.00  0.00    -0.021 A 
ATOM     21  C   UNL     1     -12.446  -1.923  -2.321  0.00  0.00    +0.057 A 
ATOM     22  C   UNL     1     -12.515  -0.674  -1.677  0.00  0.00    +0.162 A 
ATOM     23  C   UNL     1     -10.233  -1.331  -2.980  0.00  0.00    +0.012 A 
ATOM     24  C   UNL     1     -11.305  -0.006  -1.476  0.00  0.00    +0.158 A 
ATOM     25  C   UNL     1     -10.123  -0.640  -1.793  0.00  0.00    +0.050 A 
BRANCH  22  26
ATOM     26  O   UNL     1     -13.747  -0.220  -1.298  0.00  0.00    -0.491 OA
ATOM     27  C   UNL     1     -13.912   0.081   0.093  0.00  0.00    +0.277 C 
ENDBRANCH  22  26
BRANCH  24  28
ATOM     28  O   UNL     1     -11.213   1.341  -1.312  0.00  0.00    -0.503 OA
ATOM     29  H   UNL     1     -11.872   1.532  -0.618  0.00  0.00    +0.292 HD
ENDBRANCH  24  28
ENDBRANCH  18  20
ENDBRANCH  17  19
ENDBRANCH   1  17
TORSDOF 10
ENDMDL
MODEL 3
REMARK VINA RESULT:    -6.843      1.546      6.437
REMARK INTER + INTRA:         -12.453
REMARK INTER:                 -10.659
REMARK INTRA:                  -1.794
REMARK UNBOUND:                -2.010
REMARK  Name = 969516
REMARK  12 active torsions:
REMARK  status: ('A' for Active; 'I' for Inactive)
REMARK    1  A    between atoms: O_1  and  C_12
REMARK    2  A    between atoms: O_1  and  C_26
REMARK    3  A    between atoms: O_2  and  C_13
REMARK    4  A    between atoms: O_2  and  C_27
REMARK    5  A    between atoms: O_3  and  C_18
REMARK    6  A    between atoms: O_4  and  C_19
REMARK    7  A    between atoms: C_7  and  C_16
REMARK    8  A    between atoms: C_8  and  C_17
REMARK    9  A    between atoms: C_9  and  C_20
REMARK   10  A    between atoms: C_9  and  C_21
REMARK   11  A    between atoms: C_20  and  C_24
REMARK   12  A    between atoms: C_21  and  C_25
REMARK                            x       y       z     vdW  Elec       q    Type
REMARK                         _______ _______ _______ _____ _____    ______ ____
ROOT
ATOM      1  C   UNL     1      -1.493   3.137  10.011  0.00  0.00    +0.158 C 
ENDROOT
BRANCH   1   3
ATOM      2  O   UNL     1       0.075   3.145  11.811  0.00  0.00    -0.292 OA
ATOM      3  C   UNL     1      -0.378   3.731  10.826  0.00  0.00    +0.164 C 
BRANCH   3   5
ATOM      4  C   UNL     1       0.083   6.066  11.360  0.00  0.00    +0.011 C 
ATOM      5  C   UNL     1       0.125   5.071  10.458  0.00  0.00    +0.047 C 
BRANCH   4   6
ATOM      6  C   UNL     1      -0.162   7.449  10.922  0.00  0.00    -0.021 A 
ATOM      7  C   UNL     1       0.707   8.348  10.289  0.00  0.00    +0.057 A 
ATOM      8  C   UNL     1       0.324   9.707  10.214  0.00  0.00    +0.162 A 
ATOM      9  C   UNL     1      -1.394   7.942  11.366  0.00  0.00    +0.012 A 
ATOM     10  C   UNL     1      -0.983  10.037  10.586  0.00  0.00    +0.158 A 
ATOM     11  C   UNL     1      -1.924   9.049  10.742  0.00  0.00    +0.050 A 
BRANCH   8  12
ATOM     12  O   UNL     1       1.288  10.629   9.889  0.00  0.00    -0.491 OA
ATOM     13  C   UNL     1       0.945  11.532   8.827  0.00  0.00    +0.277 C 
ENDBRANCH   8  12
BRANCH  10  14
ATOM     14  O   UNL     1      -1.278  11.213  11.221  0.00  0.00    -0.503 OA
ATOM     15  H   UNL     1      -0.761  11.171  12.049  0.00  0.00    +0.292 HD
ENDBRANCH  10  14
ENDBRANCH   4   6
ENDBRANCH   3   5
ENDBRANCH   1   3
BRANCH   1  17
ATOM     16  O   UNL     1      -2.529   3.987   8.056  0.00  0.00    -0.292 OA
ATOM     17  C   UNL     1      -2.442   4.061   9.285  0.00  0.00    +0.164 C 
BRANCH  17  19
ATOM     18  C   UNL     1      -3.884   4.497  11.214  0.00  0.00    +0.011 C 
ATOM     19  C   UNL     1      -3.403   4.932  10.029  0.00  0.00    +0.047 C 
BRANCH  18  20
ATOM     20  C   UNL     1      -4.240   5.435  12.297  0.00  0.00    -0.021 A 
ATOM     21  C   UNL     1      -4.554   6.807  12.168  0.00  0.00    +0.057 A 
ATOM     22  C   UNL     1      -5.290   7.433  13.190  0.00  0.00    +0.162 A 
ATOM     23  C   UNL     1      -4.678   4.808  13.460  0.00  0.00    +0.012 A 
ATOM     24  C   UNL     1      -5.929   6.592  14.105  0.00  0.00    +0.158 A 
ATOM     25  C   UNL     1      -5.915   5.231  13.896  0.00  0.00    +0.050 A 
BRANCH  22  26
ATOM     26  O   UNL     1      -5.326   8.799  13.205  0.00  0.00    -0.491 OA
ATOM     27  C   UNL     1      -4.138   9.460  13.659  0.00  0.00    +0.277 C 
ENDBRANCH  22  26
BRANCH  24  28
ATOM     28  O   UNL     1      -6.272   6.981  15.364  0.00  0.00    -0.503 OA
ATOM     29  H   UNL     1      -6.847   7.755  15.214  0.00  0.00    +0.292 HD
ENDBRANCH  24  28
ENDBRANCH  18  20
ENDBRANCH  17  19
ENDBRANCH   1  17
TORSDOF 10
ENDMDL
MODEL 4
REMARK VINA RESULT:    -6.696      1.832      5.966
REMARK INTER + INTRA:         -12.229
REMARK INTER:                 -10.102
REMARK INTRA:                  -2.126
REMARK UNBOUND:                -2.010
REMARK  Name = 969516
REMARK  12 active torsions:
REMARK  status: ('A' for Active; 'I' for Inactive)
REMARK    1  A    between atoms: O_1  and  C_12
REMARK    2  A    between atoms: O_1  and  C_26
REMARK    3  A    between atoms: O_2  and  C_13
REMARK    4  A    between atoms: O_2  and  C_27
REMARK    5  A    between atoms: O_3  and  C_18
REMARK    6  A    between atoms: O_4  and  C_19
REMARK    7  A    between atoms: C_7  and  C_16
REMARK    8  A    between atoms: C_8  and  C_17
REMARK    9  A    between atoms: C_9  and  C_20
REMARK   10  A    between atoms: C_9  and  C_21
REMARK   11  A    between atoms: C_20  and  C_24
REMARK   12  A    between atoms: C_21  and  C_25
REMARK                            x       y       z     vdW  Elec       q    Type
REMARK                         _______ _______ _______ _____ _____    ______ ____
ROOT
ATOM      1  C   UNL     1      -6.506   6.001  13.196  0.00  0.00    +0.158 C 
ENDROOT
BRANCH   1   3
ATOM      2  O   UNL     1      -6.511   8.144  12.146  0.00  0.00    -0.292 OA
ATOM      3  C   UNL     1      -5.853   7.262  12.701  0.00  0.00    +0.164 C 
BRANCH   3   5
ATOM      4  C   UNL     1      -3.803   8.577  12.576  0.00  0.00    +0.011 C 
ATOM      5  C   UNL     1      -4.388   7.395  12.836  0.00  0.00    +0.047 C 
BRANCH   4   6
ATOM      6  C   UNL     1      -2.461   8.619  11.976  0.00  0.00    -0.021 A 
ATOM      7  C   UNL     1      -1.277   9.174  12.480  0.00  0.00    +0.057 A 
ATOM      8  C   UNL     1      -0.181   9.327  11.600  0.00  0.00    +0.162 A 
ATOM      9  C   UNL     1      -2.453   8.173  10.649  0.00  0.00    +0.012 A 
ATOM     10  C   UNL     1      -0.270   8.727  10.339  0.00  0.00    +0.158 A 
ATOM     11  C   UNL     1      -1.252   7.802  10.085  0.00  0.00    +0.050 A 
BRANCH   8  12
ATOM     12  O   UNL     1       0.849  10.144  11.992  0.00  0.00    -0.491 OA
ATOM     13  C   UNL     1       0.534  11.543  12.065  0.00  0.00    +0.277 C 
ENDBRANCH   8  12
BRANCH  10  14
ATOM     14  O   UNL     1       0.270   9.307   9.224  0.00  0.00    -0.503 OA
ATOM     15  H   UNL     1       1.211   9.431   9.454  0.00  0.00    +0.292 HD
ENDBRANCH  10  14
ENDBRANCH   4   6
ENDBRANCH   3   5
ENDBRANCH   1   3
BRANCH   1  17
ATOM     16  O   UNL     1      -7.511   4.349  11.825  0.00  0.00    -0.292 OA
ATOM     17  C   UNL     1      -6.463   4.765  12.329  0.00  0.00    +0.164 C 
BRANCH  17  19
ATOM     18  C   UNL     1      -4.607   4.522  10.752  0.00  0.00    +0.011 C 
ATOM     19  C   UNL     1      -5.166   4.143  11.922  0.00  0.00    +0.047 C 
BRANCH  18  20
ATOM     20  C   UNL     1      -3.143   4.540  10.562  0.00  0.00    -0.021 A 
ATOM     21  C   UNL     1      -2.152   4.431  11.565  0.00  0.00    +0.057 A 
ATOM     22  C   UNL     1      -0.858   4.020  11.196  0.00  0.00    +0.162 A 
ATOM     23  C   UNL     1      -2.742   4.246   9.263  0.00  0.00    +0.012 A 
ATOM     24  C   UNL     1      -0.721   3.448   9.929  0.00  0.00    +0.158 A 
ATOM     25  C   UNL     1      -1.846   3.203   9.173  0.00  0.00    +0.050 A 
BRANCH  22  26
ATOM     26  O   UNL     1       0.152   4.207  12.098  0.00  0.00    -0.491 OA
ATOM     27  C   UNL     1       0.474   5.567  12.417  0.00  0.00    +0.277 C 
ENDBRANCH  22  26
BRANCH  24  28
ATOM     28  O   UNL     1       0.454   3.426   9.241  0.00  0.00    -0.503 OA
ATOM     29  H   UNL     1       0.726   2.491   9.287  0.00  0.00    +0.292 HD
ENDBRANCH  24  28
ENDBRANCH  18  20
ENDBRANCH  17  19
ENDBRANCH   1  17
TORSDOF 10
ENDMDL
MODEL 5
REMARK VINA RESULT:    -6.630      1.208      4.294
REMARK INTER + INTRA:         -12.128
REMARK INTER:                  -9.354
REMARK INTRA:                  -2.774
REMARK UNBOUND:                -2.010
REMARK  Name = 969516
REMARK  12 active torsions:
REMARK  status: ('A' for Active; 'I' for Inactive)
REMARK    1  A    between atoms: O_1  and  C_12
REMARK    2  A    between atoms: O_1  and  C_26
REMARK    3  A    between atoms: O_2  and  C_13
REMARK    4  A    between atoms: O_2  and  C_27
REMARK    5  A    between atoms: O_3  and  C_18
REMARK    6  A    between atoms: O_4  and  C_19
REMARK    7  A    between atoms: C_7  and  C_16
REMARK    8  A    between atoms: C_8  and  C_17
REMARK    9  A    between atoms: C_9  and  C_20
REMARK   10  A    between atoms: C_9  and  C_21
REMARK   11  A    between atoms: C_20  and  C_24
REMARK   12  A    between atoms: C_21  and  C_25
REMARK                            x       y       z     vdW  Elec       q    Type
REMARK                         _______ _______ _______ _____ _____    ______ ____
ROOT
ATOM      1  C   UNL     1      -0.343  11.540  11.763  0.00  0.00    +0.158 C 
ENDROOT
BRANCH   1   3
ATOM      2  O   UNL     1       1.926  10.828  11.956  0.00  0.00    -0.292 OA
ATOM      3  C   UNL     1       0.794  10.581  11.540  0.00  0.00    +0.164 C 
BRANCH   3   5
ATOM      4  C   UNL     1      -0.720   8.902  10.625  0.00  0.00    +0.011 C 
ATOM      5  C   UNL     1       0.538   9.359  10.750  0.00  0.00    +0.047 C 
BRANCH   4   6
ATOM      6  C   UNL     1      -0.974   7.455  10.552  0.00  0.00    -0.021 A 
ATOM      7  C   UNL     1      -2.021   6.766   9.924  0.00  0.00    +0.057 A 
ATOM      8  C   UNL     1      -2.195   5.395  10.224  0.00  0.00    +0.162 A 
ATOM      9  C   UNL     1      -0.115   6.717  11.374  0.00  0.00    +0.012 A 
ATOM     10  C   UNL     1      -1.193   4.758  10.964  0.00  0.00    +0.158 A 
ATOM     11  C   UNL     1       0.025   5.367  11.139  0.00  0.00    +0.050 A 
BRANCH   8  12
ATOM     12  O   UNL     1      -3.383   4.805   9.870  0.00  0.00    -0.491 OA
ATOM     13  C   UNL     1      -3.339   3.990   8.689  0.00  0.00    +0.277 C 
ENDBRANCH   8  12
BRANCH  10  14
ATOM     14  O   UNL     1      -1.480   3.782  11.878  0.00  0.00    -0.503 OA
ATOM     15  H   UNL     1      -1.234   2.953  11.424  0.00  0.00    +0.292 HD
ENDBRANCH  10  14
ENDBRANCH   4   6
ENDBRANCH   3   5
ENDBRANCH   1   3
BRANCH   1  17
ATOM     16  O   UNL     1      -0.442  12.803  13.767  0.00  0.00    -0.292 OA
ATOM     17  C   UNL     1      -0.824  11.790  13.173  0.00  0.00    +0.164 C 
BRANCH  17  19
ATOM     18  C   UNL     1      -2.875  10.464  13.011  0.00  0.00    +0.011 C 
ATOM     19  C   UNL     1      -1.885  10.940  13.797  0.00  0.00    +0.047 C 
BRANCH  18  20
ATOM     20  C   UNL     1      -3.529   9.169  13.287  0.00  0.00    -0.021 A 
ATOM     21  C   UNL     1      -4.461   8.494  12.467  0.00  0.00    +0.057 A 
ATOM     22  C   UNL     1      -4.639   7.109  12.643  0.00  0.00    +0.162 A 
ATOM     23  C   UNL     1      -2.865   8.396  14.234  0.00  0.00    +0.012 A 
ATOM     24  C   UNL     1      -3.664   6.444  13.390  0.00  0.00    +0.158 A 
ATOM     25  C   UNL     1      -2.542   7.129  13.800  0.00  0.00    +0.050 A 
BRANCH  22  26
ATOM     26  O   UNL     1      -5.736   6.530  12.070  0.00  0.00    -0.491 OA
ATOM     27  C   UNL     1      -7.010   7.042  12.479  0.00  0.00    +0.277 C 
ENDBRANCH  22  26
BRANCH  24  28
ATOM     28  O   UNL     1      -3.891   5.267  14.036  0.00  0.00    -0.503 OA
ATOM     29  H   UNL     1      -4.778   5.004  13.724  0.00  0.00    +0.292 HD
ENDBRANCH  24  28
ENDBRANCH  18  20
ENDBRANCH  17  19
ENDBRANCH   1  17
TORSDOF 10
ENDMDL
MODEL 6
REMARK VINA RESULT:    -6.554     15.726     19.344
REMARK INTER + INTRA:         -12.012
REMARK INTER:                 -10.065
REMARK INTRA:                  -1.948
REMARK UNBOUND:                -2.010
REMARK  Name = 969516
REMARK  12 active torsions:
REMARK  status: ('A' for Active; 'I' for Inactive)
REMARK    1  A    between atoms: O_1  and  C_12
REMARK    2  A    between atoms: O_1  and  C_26
REMARK    3  A    between atoms: O_2  and  C_13
REMARK    4  A    between atoms: O_2  and  C_27
REMARK    5  A    between atoms: O_3  and  C_18
REMARK    6  A    between atoms: O_4  and  C_19
REMARK    7  A    between atoms: C_7  and  C_16
REMARK    8  A    between atoms: C_8  and  C_17
REMARK    9  A    between atoms: C_9  and  C_20
REMARK   10  A    between atoms: C_9  and  C_21
REMARK   11  A    between atoms: C_20  and  C_24
REMARK   12  A    between atoms: C_21  and  C_25
REMARK                            x       y       z     vdW  Elec       q    Type
REMARK                         _______ _______ _______ _____ _____    ______ ____
ROOT
ATOM      1  C   UNL     1      -8.682  -5.795  -3.436  0.00  0.00    +0.158 C 
ENDROOT
BRANCH   1   3
ATOM      2  O   UNL     1      -6.556  -6.197  -2.430  0.00  0.00    -0.292 OA
ATOM      3  C   UNL     1      -7.236  -5.483  -3.169  0.00  0.00    +0.164 C 
BRANCH   3   5
ATOM      4  C   UNL     1      -6.564  -3.143  -3.019  0.00  0.00    +0.011 C 
ATOM      5  C   UNL     1      -6.659  -4.259  -3.762  0.00  0.00    +0.047 C 
BRANCH   4   6
ATOM      6  C   UNL     1      -6.731  -1.823  -3.646  0.00  0.00    -0.021 A 
ATOM      7  C   UNL     1      -6.074  -1.275  -4.755  0.00  0.00    +0.057 A 
ATOM      8  C   UNL     1      -6.215   0.110  -5.000  0.00  0.00    +0.162 A 
ATOM      9  C   UNL     1      -7.556  -0.976  -2.898  0.00  0.00    +0.012 A 
ATOM     10  C   UNL     1      -7.165   0.811  -4.249  0.00  0.00    +0.158 A 
ATOM     11  C   UNL     1      -8.104   0.126  -3.518  0.00  0.00    +0.050 A 
BRANCH   8  12
ATOM     12  O   UNL     1      -5.338   0.701  -5.875  0.00  0.00    -0.491 OA
ATOM     13  C   UNL     1      -4.116  -0.017  -6.104  0.00  0.00    +0.277 C 
ENDBRANCH   8  12
BRANCH  10  14
ATOM     14  O   UNL     1      -6.959   2.102  -3.848  0.00  0.00    -0.503 OA
ATOM     15  H   UNL     1      -5.987   2.185  -3.806  0.00  0.00    +0.292 HD
ENDBRANCH  10  14
ENDBRANCH   4   6
ENDBRANCH   3   5
ENDBRANCH   1   3
BRANCH   1  17
ATOM     16  O   UNL     1     -10.025  -4.640  -5.012  0.00  0.00    -0.292 OA
ATOM     17  C   UNL     1      -9.608  -4.676  -3.850  0.00  0.00    +0.164 C 
BRANCH  17  19
ATOM     18  C   UNL     1     -10.004  -3.988  -1.534  0.00  0.00    +0.011 C 
ATOM     19  C   UNL     1     -10.171  -3.719  -2.848  0.00  0.00    +0.047 C 
BRANCH  18  20
ATOM     20  C   UNL     1      -9.881  -2.911  -0.532  0.00  0.00    -0.021 A 
ATOM     21  C   UNL     1     -10.924  -2.319   0.215  0.00  0.00    +0.057 A 
ATOM     22  C   UNL     1     -10.606  -1.652   1.412  0.00  0.00    +0.162 A 
ATOM     23  C   UNL     1      -8.595  -2.766  -0.020  0.00  0.00    +0.012 A 
ATOM     24  C   UNL     1      -9.335  -1.890   1.942  0.00  0.00    +0.158 A 
ATOM     25  C   UNL     1      -8.525  -2.836   1.354  0.00  0.00    +0.050 A 
BRANCH  22  26
ATOM     26  O   UNL     1     -11.557  -0.837   1.960  0.00  0.00    -0.491 OA
ATOM     27  C   UNL     1     -12.553  -1.478   2.767  0.00  0.00    +0.277 C 
ENDBRANCH  22  26
BRANCH  24  28
ATOM     28  O   UNL     1      -8.702  -1.027   2.781  0.00  0.00    -0.503 OA
ATOM     29  H   UNL     1      -8.290  -1.614   3.443  0.00  0.00    +0.292 HD
ENDBRANCH  24  28
ENDBRANCH  18  20
ENDBRANCH  17  19
ENDBRANCH   1  17
TORSDOF 10
ENDMDL
MODEL 7
REMARK VINA RESULT:    -6.503     17.325     19.794
REMARK INTER + INTRA:         -11.935
REMARK INTER:                  -9.594
REMARK INTRA:                  -2.341
REMARK UNBOUND:                -2.010
REMARK  Name = 969516
REMARK  12 active torsions:
REMARK  status: ('A' for Active; 'I' for Inactive)
REMARK    1  A    between atoms: O_1  and  C_12
REMARK    2  A    between atoms: O_1  and  C_26
REMARK    3  A    between atoms: O_2  and  C_13
REMARK    4  A    between atoms: O_2  and  C_27
REMARK    5  A    between atoms: O_3  and  C_18
REMARK    6  A    between atoms: O_4  and  C_19
REMARK    7  A    between atoms: C_7  and  C_16
REMARK    8  A    between atoms: C_8  and  C_17
REMARK    9  A    between atoms: C_9  and  C_20
REMARK   10  A    between atoms: C_9  and  C_21
REMARK   11  A    between atoms: C_20  and  C_24
REMARK   12  A    between atoms: C_21  and  C_25
REMARK                            x       y       z     vdW  Elec       q    Type
REMARK                         _______ _______ _______ _____ _____    ______ ____
ROOT
ATOM      1  C   UNL     1     -13.016  -2.354   0.845  0.00  0.00    +0.158 C 
ENDROOT
BRANCH   1   3
ATOM      2  O   UNL     1     -11.310  -2.292   2.513  0.00  0.00    -0.292 OA
ATOM      3  C   UNL     1     -11.667  -2.707   1.410  0.00  0.00    +0.164 C 
BRANCH   3   5
ATOM      4  C   UNL     1      -9.442  -3.192   0.537  0.00  0.00    +0.011 C 
ATOM      5  C   UNL     1     -10.747  -3.512   0.581  0.00  0.00    +0.047 C 
BRANCH   4   6
ATOM      6  C   UNL     1      -8.677  -3.388  -0.704  0.00  0.00    -0.021 A 
ATOM      7  C   UNL     1      -8.643  -4.494  -1.564  0.00  0.00    +0.057 A 
ATOM      8  C   UNL     1      -7.625  -4.550  -2.544  0.00  0.00    +0.162 A 
ATOM      9  C   UNL     1      -7.746  -2.367  -0.927  0.00  0.00    +0.012 A 
ATOM     10  C   UNL     1      -6.842  -3.407  -2.735  0.00  0.00    +0.158 A 
ATOM     11  C   UNL     1      -7.235  -2.206  -2.196  0.00  0.00    +0.050 A 
BRANCH   8  12
ATOM     12  O   UNL     1      -7.396  -5.752  -3.165  0.00  0.00    -0.491 OA
ATOM     13  C   UNL     1      -6.198  -6.434  -2.766  0.00  0.00    +0.277 C 
ENDBRANCH   8  12
BRANCH  10  14
ATOM     14  O   UNL     1      -5.512  -3.486  -3.046  0.00  0.00    -0.503 OA
ATOM     15  H   UNL     1      -5.339  -4.446  -3.101  0.00  0.00    +0.292 HD
ENDBRANCH  10  14
ENDBRANCH   4   6
ENDBRANCH   3   5
ENDBRANCH   1   3
BRANCH   1  17
ATOM     16  O   UNL     1     -13.503  -0.071   0.436  0.00  0.00    -0.292 OA
ATOM     17  C   UNL     1     -13.141  -1.146  -0.052  0.00  0.00    +0.164 C 
BRANCH  17  19
ATOM     18  C   UNL     1     -11.491  -0.585  -1.770  0.00  0.00    +0.011 C 
ATOM     19  C   UNL     1     -12.668  -1.175  -1.470  0.00  0.00    +0.047 C 
BRANCH  18  20
ATOM     20  C   UNL     1     -10.627  -1.086  -2.857  0.00  0.00    -0.021 A 
ATOM     21  C   UNL     1     -10.794  -2.279  -3.597  0.00  0.00    +0.057 A 
ATOM     22  C   UNL     1     -10.175  -2.387  -4.856  0.00  0.00    +0.162 A 
ATOM     23  C   UNL     1      -9.831  -0.104  -3.439  0.00  0.00    +0.012 A 
ATOM     24  C   UNL     1      -9.705  -1.201  -5.425  0.00  0.00    +0.158 A 
ATOM     25  C   UNL     1      -9.974  -0.001  -4.806  0.00  0.00    +0.050 A 
BRANCH  22  26
ATOM     26  O   UNL     1     -10.088  -3.629  -5.419  0.00  0.00    -0.491 OA
ATOM     27  C   UNL     1     -10.722  -4.696  -4.702  0.00  0.00    +0.277 C 
ENDBRANCH  22  26
BRANCH  24  28
ATOM     28  O   UNL     1      -8.715  -1.161  -6.358  0.00  0.00    -0.503 OA
ATOM     29  H   UNL     1      -9.040  -1.755  -7.061  0.00  0.00    +0.292 HD
ENDBRANCH  24  28
ENDBRANCH  18  20
ENDBRANCH  17  19
ENDBRANCH   1  17
TORSDOF 10
ENDMDL
MODEL 8
REMARK VINA RESULT:    -6.302      2.084      5.571
REMARK INTER + INTRA:         -11.628
REMARK INTER:                  -9.571
REMARK INTRA:                  -2.058
REMARK UNBOUND:                -2.010
REMARK  Name = 969516
REMARK  12 active torsions:
REMARK  status: ('A' for Active; 'I' for Inactive)
REMARK    1  A    between atoms: O_1  and  C_12
REMARK    2  A    between atoms: O_1  and  C_26
REMARK    3  A    between atoms: O_2  and  C_13
REMARK    4  A    between atoms: O_2  and  C_27
REMARK    5  A    between atoms: O_3  and  C_18
REMARK    6  A    between atoms: O_4  and  C_19
REMARK    7  A    between atoms: C_7  and  C_16
REMARK    8  A    between atoms: C_8  and  C_17
REMARK    9  A    between atoms: C_9  and  C_20
REMARK   10  A    between atoms: C_9  and  C_21
REMARK   11  A    between atoms: C_20  and  C_24
REMARK   12  A    between atoms: C_21  and  C_25
REMARK                            x       y       z     vdW  Elec       q    Type
REMARK                         _______ _______ _______ _____ _____    ______ ____
ROOT
ATOM      1  C   UNL     1      -3.924   4.651  10.495  0.00  0.00    +0.158 C 
ENDROOT
BRANCH   1   3
ATOM      2  O   UNL     1      -3.310   2.925  12.024  0.00  0.00    -0.292 OA
ATOM      3  C   UNL     1      -3.758   4.062  11.869  0.00  0.00    +0.164 C 
BRANCH   3   5
ATOM      4  C   UNL     1      -4.638   6.113  12.851  0.00  0.00    +0.011 C 
ATOM      5  C   UNL     1      -4.206   4.854  13.033  0.00  0.00    +0.047 C 
BRANCH   4   6
ATOM      6  C   UNL     1      -4.383   7.135  13.878  0.00  0.00    -0.021 A 
ATOM      7  C   UNL     1      -3.381   7.184  14.856  0.00  0.00    +0.057 A 
ATOM      8  C   UNL     1      -3.507   8.131  15.899  0.00  0.00    +0.162 A 
ATOM      9  C   UNL     1      -5.407   8.087  13.953  0.00  0.00    +0.012 A 
ATOM     10  C   UNL     1      -4.510   9.098  15.781  0.00  0.00    +0.158 A 
ATOM     11  C   UNL     1      -5.147   9.286  14.579  0.00  0.00    +0.050 A 
BRANCH   8  12
ATOM     12  O   UNL     1      -2.716   7.974  17.009  0.00  0.00    -0.491 OA
ATOM     13  C   UNL     1      -2.700   6.654  17.574  0.00  0.00    +0.277 C 
ENDBRANCH   8  12
BRANCH  10  14
ATOM     14  O   UNL     1      -5.196   9.564  16.869  0.00  0.00    -0.503 OA
ATOM     15  H   UNL     1      -4.880  10.482  16.973  0.00  0.00    +0.292 HD
ENDBRANCH  10  14
ENDBRANCH   4   6
ENDBRANCH   3   5
ENDBRANCH   1   3
BRANCH   1  17
ATOM     16  O   UNL     1      -2.519   4.311   8.617  0.00  0.00    -0.292 OA
ATOM     17  C   UNL     1      -2.693   4.936   9.667  0.00  0.00    +0.164 C 
BRANCH  17  19
ATOM     18  C   UNL     1      -2.156   7.324   9.640  0.00  0.00    +0.011 C 
ATOM     19  C   UNL     1      -1.781   6.076   9.993  0.00  0.00    +0.047 C 
BRANCH  18  20
ATOM     20  C   UNL     1      -1.760   8.506  10.432  0.00  0.00    -0.021 A 
ATOM     21  C   UNL     1      -2.368   8.980  11.616  0.00  0.00    +0.057 A 
ATOM     22  C   UNL     1      -1.625   9.815  12.471  0.00  0.00    +0.162 A 
ATOM     23  C   UNL     1      -0.456   8.929  10.194  0.00  0.00    +0.012 A 
ATOM     24  C   UNL     1      -0.245   9.862  12.256  0.00  0.00    +0.158 A 
ATOM     25  C   UNL     1       0.323   9.017  11.328  0.00  0.00    +0.050 A 
BRANCH  22  26
ATOM     26  O   UNL     1      -2.303  10.504  13.438  0.00  0.00    -0.491 OA
ATOM     27  C   UNL     1      -2.887  11.750  13.037  0.00  0.00    +0.277 C 
ENDBRANCH  22  26
BRANCH  24  28
ATOM     28  O   UNL     1       0.536  10.907  12.641  0.00  0.00    -0.503 OA
ATOM     29  H   UNL     1       1.361  10.478  12.936  0.00  0.00    +0.292 HD
ENDBRANCH  24  28
ENDBRANCH  18  20
ENDBRANCH  17  19
ENDBRANCH   1  17
TORSDOF 10
ENDMDL
MODEL 9
REMARK VINA RESULT:    -6.295      1.818      5.407
REMARK INTER + INTRA:         -11.617
REMARK INTER:                  -9.887
REMARK INTRA:                  -1.730
REMARK UNBOUND:                -2.010
REMARK  Name = 969516
REMARK  12 active torsions:
REMARK  status: ('A' for Active; 'I' for Inactive)
REMARK    1  A    between atoms: O_1  and  C_12
REMARK    2  A    between atoms: O_1  and  C_26
REMARK    3  A    between atoms: O_2  and  C_13
REMARK    4  A    between atoms: O_2  and  C_27
REMARK    5  A    between atoms: O_3  and  C_18
REMARK    6  A    between atoms: O_4  and  C_19
REMARK    7  A    between atoms: C_7  and  C_16
REMARK    8  A    between atoms: C_8  and  C_17
REMARK    9  A    between atoms: C_9  and  C_20
REMARK   10  A    between atoms: C_9  and  C_21
REMARK   11  A    between atoms: C_20  and  C_24
REMARK   12  A    between atoms: C_21  and  C_25
REMARK                            x       y       z     vdW  Elec       q    Type
REMARK                         _______ _______ _______ _____ _____    ______ ____
ROOT
ATOM      1  C   UNL     1      -1.999   3.453  10.615  0.00  0.00    +0.158 C 
ENDROOT
BRANCH   1   3
ATOM      2  O   UNL     1      -3.153   3.928   8.582  0.00  0.00    -0.292 OA
ATOM      3  C   UNL     1      -3.148   3.995   9.812  0.00  0.00    +0.164 C 
BRANCH   3   5
ATOM      4  C   UNL     1      -3.975   5.429  11.603  0.00  0.00    +0.011 C 
ATOM      5  C   UNL     1      -4.250   4.671  10.528  0.00  0.00    +0.047 C 
BRANCH   4   6
ATOM      6  C   UNL     1      -4.926   5.490  12.724  0.00  0.00    -0.021 A 
ATOM      7  C   UNL     1      -6.327   5.491  12.704  0.00  0.00    +0.057 A 
ATOM      8  C   UNL     1      -7.014   5.830  13.892  0.00  0.00    +0.162 A 
ATOM      9  C   UNL     1      -4.296   5.745  13.948  0.00  0.00    +0.012 A 
ATOM     10  C   UNL     1      -6.265   5.940  15.068  0.00  0.00    +0.158 A 
ATOM     11  C   UNL     1      -4.977   5.464  15.111  0.00  0.00    +0.050 A 
BRANCH   8  12
ATOM     12  O   UNL     1      -8.348   6.138  13.798  0.00  0.00    -0.491 OA
ATOM     13  C   UNL     1      -8.817   6.450  12.477  0.00  0.00    +0.277 C 
ENDBRANCH   8  12
BRANCH  10  14
ATOM     14  O   UNL     1      -6.563   6.866  16.030  0.00  0.00    -0.503 OA
ATOM     15  H   UNL     1      -7.192   7.470  15.590  0.00  0.00    +0.292 HD
ENDBRANCH  10  14
ENDBRANCH   4   6
ENDBRANCH   3   5
ENDBRANCH   1   3
BRANCH   1  17
ATOM     16  O   UNL     1      -0.056   3.166   9.287  0.00  0.00    -0.292 OA
ATOM     17  C   UNL     1      -0.588   3.801  10.203  0.00  0.00    +0.164 C 
BRANCH  17  19
ATOM     18  C   UNL     1      -0.372   6.228  10.436  0.00  0.00    +0.011 C 
ATOM     19  C   UNL     1       0.108   5.006  10.751  0.00  0.00    +0.047 C 
BRANCH  18  20
ATOM     20  C   UNL     1      -0.255   7.370  11.365  0.00  0.00    -0.021 A 
ATOM     21  C   UNL     1       0.340   8.625  11.101  0.00  0.00    +0.057 A 
ATOM     22  C   UNL     1      -0.019   9.725  11.901  0.00  0.00    +0.162 A 
ATOM     23  C   UNL     1      -1.152   7.322  12.428  0.00  0.00    +0.012 A 
ATOM     24  C   UNL     1      -1.163   9.579  12.688  0.00  0.00    +0.158 A 
ATOM     25  C   UNL     1      -1.937   8.447  12.554  0.00  0.00    +0.050 A 
BRANCH  22  26
ATOM     26  O   UNL     1       0.769  10.840  11.842  0.00  0.00    -0.491 OA
ATOM     27  C   UNL     1       0.190  11.995  11.221  0.00  0.00    +0.277 C 
ENDBRANCH  22  26
BRANCH  24  28
ATOM     28  O   UNL     1      -1.392  10.305  13.817  0.00  0.00    -0.503 OA
ATOM     29  H   UNL     1      -0.928   9.799  14.510  0.00  0.00    +0.292 HD
ENDBRANCH  24  28
ENDBRANCH  18  20
ENDBRANCH  17  19
ENDBRANCH   1  17
TORSDOF 10
ENDMDL
