REMARK  Name = 969516
REMARK  12 active torsions:
REMARK  status: ('A' for Active; 'I' for Inactive)
REMARK    1  A    between atoms: O_1  and  C_12
REMARK    2  A    between atoms: O_1  and  C_26
REMARK    3  A    between atoms: O_2  and  C_13
REMARK    4  A    between atoms: O_2  and  C_27
REMARK    5  A    between atoms: O_3  and  C_18
REMARK    6  A    between atoms: O_4  and  C_19
REMARK    7  A    between atoms: C_7  and  C_16
REMARK    8  A    between atoms: C_8  and  C_17
REMARK    9  A    between atoms: C_9  and  C_20
REMARK   10  A    between atoms: C_9  and  C_21
REMARK   11  A    between atoms: C_20  and  C_24
REMARK   12  A    between atoms: C_21  and  C_25
REMARK                            x       y       z     vdW  Elec       q    Type
REMARK                         _______ _______ _______ _____ _____    ______ ____
ROOT
ATOM      1  C   UNL     1       2.285   4.518   2.363  0.00  0.00    +0.158 C 
ENDROOT
BRANCH   1   3
ATOM      2  O   UNL     1      -0.034   5.063   2.504  0.00  0.00    -0.292 OA
ATOM      3  C   UNL     1       0.867   4.520   1.863  0.00  0.00    +0.164 C 
BRANCH   3   5
ATOM      4  C   UNL     1      -0.629   3.976   0.015  0.00  0.00    +0.011 C 
ATOM      5  C   UNL     1       0.562   3.797   0.611  0.00  0.00    +0.047 C 
BRANCH   4   6
ATOM      6  C   UNL     1      -1.274   2.860  -0.694  0.00  0.00    -0.021 A 
ATOM      7  C   UNL     1      -1.480   2.679  -2.068  0.00  0.00    +0.057 A 
ATOM      8  C   UNL     1      -2.363   1.656  -2.484  0.00  0.00    +0.162 A 
ATOM      9  C   UNL     1      -1.894   1.958   0.178  0.00  0.00    +0.012 A 
ATOM     10  C   UNL     1      -2.815   0.753  -1.516  0.00  0.00    +0.158 A 
ATOM     11  C   UNL     1      -2.204   0.699  -0.287  0.00  0.00    +0.050 A 
BRANCH   8  12
ATOM     12  O   UNL     1      -2.808   1.679  -3.782  0.00  0.00    -0.491 OA
ATOM     13  C   UNL     1      -3.451   0.478  -4.235  0.00  0.00    +0.277 C 
ENDBRANCH   8  12
BRANCH  10  14
ATOM     14  O   UNL     1      -4.080   0.233  -1.548  0.00  0.00    -0.503 OA
ATOM     15  H   UNL     1      -4.653   1.013  -1.679  0.00  0.00    +0.292 HD
ENDBRANCH  10  14
ENDBRANCH   4   6
ENDBRANCH   3   5
ENDBRANCH   1   3
BRANCH   1  17
ATOM     16  O   UNL     1       4.121   3.083   2.799  0.00  0.00    -0.292 OA
ATOM     17  C   UNL     1       2.894   3.218   2.833  0.00  0.00    +0.164 C 
BRANCH  17  19
ATOM     18  C   UNL     1       2.608   0.944   3.692  0.00  0.00    +0.011 C 
ATOM     19  C   UNL     1       2.067   2.167   3.502  0.00  0.00    +0.047 C 
BRANCH  18  20
ATOM     20  C   UNL     1       2.235   0.102   4.846  0.00  0.00    -0.021 A 
ATOM     21  C   UNL     1       2.319  -1.306   4.936  0.00  0.00    +0.057 A 
ATOM     22  C   UNL     1       2.358  -1.902   6.210  0.00  0.00    +0.162 A 
ATOM     23  C   UNL     1       2.177   0.796   6.051  0.00  0.00    +0.012 A 
ATOM     24  C   UNL     1       2.629  -1.056   7.288  0.00  0.00    +0.158 A 
ATOM     25  C   UNL     1       2.962   0.259   7.048  0.00  0.00    +0.050 A 
BRANCH  22  26
ATOM     26  O   UNL     1       2.135  -3.248   6.291  0.00  0.00    -0.491 OA
ATOM     27  C   UNL     1       2.440  -3.867   7.547  0.00  0.00    +0.277 C 
ENDBRANCH  22  26
BRANCH  24  28
ATOM     28  O   UNL     1       2.261  -1.335   8.568  0.00  0.00    -0.503 OA
ATOM     29  H   UNL     1       1.286  -1.324   8.532  0.00  0.00    +0.292 HD
ENDBRANCH  24  28
ENDBRANCH  18  20
ENDBRANCH  17  19
ENDBRANCH   1  17
TORSDOF 10
